Circuit: * Z:\home\raesangur\github\UdeS_S4_APP3\add3b_test.asc

WARNING: Node X1:X1:N002 is floating.
WARNING: Node X1:X1:N008 is floating.
WARNING: Node X1:X1:N001 is floating.
WARNING: Node X1:X1:N005 is floating.
WARNING: Node X1:X1:N006 is floating.
WARNING: Node X1:X1:N009 is floating.
WARNING: Node X1:X2:N002 is floating.
WARNING: Node X1:X2:N008 is floating.
WARNING: Node X1:X2:N001 is floating.
WARNING: Node X1:X2:N005 is floating.
WARNING: Node X1:X2:N006 is floating.
WARNING: Node X1:X2:N009 is floating.
WARNING: Node X1:X3:N005 is floating.
WARNING: Node X1:X3:N003 is floating.
WARNING: Node X1:X3:N002 is floating.
WARNING: Node X1:X3:N001 is floating.
WARNING: Node X1:X4:N005 is floating.
WARNING: Node X1:X4:N003 is floating.
WARNING: Node X1:X4:N002 is floating.
WARNING: Node X1:X4:N001 is floating.
WARNING: Node X1:X6:N005 is floating.
WARNING: Node X1:X6:N003 is floating.
WARNING: Node X1:X6:N002 is floating.
WARNING: Node X1:X6:N001 is floating.
WARNING: Node X1:X11:N002 is floating.
WARNING: Node X1:X11:N008 is floating.
WARNING: Node X1:X11:N001 is floating.
WARNING: Node X1:X11:N005 is floating.
WARNING: Node X1:X11:N006 is floating.
WARNING: Node X1:X11:N009 is floating.
WARNING: Node X1:X12:N002 is floating.
WARNING: Node X1:X12:N008 is floating.
WARNING: Node X1:X12:N001 is floating.
WARNING: Node X1:X12:N005 is floating.
WARNING: Node X1:X12:N006 is floating.
WARNING: Node X1:X12:N009 is floating.
WARNING: Node X1:X13:N005 is floating.
WARNING: Node X1:X13:N003 is floating.
WARNING: Node X1:X13:N002 is floating.
WARNING: Node X1:X13:N001 is floating.
WARNING: Node X1:X14:N005 is floating.
WARNING: Node X1:X14:N003 is floating.
WARNING: Node X1:X14:N002 is floating.
WARNING: Node X1:X14:N001 is floating.
WARNING: Node X1:X15:N005 is floating.
WARNING: Node X1:X15:N003 is floating.
WARNING: Node X1:X15:N002 is floating.
WARNING: Node X1:X15:N001 is floating.
WARNING: Node X1:X16:N002 is floating.
WARNING: Node X1:X16:N008 is floating.
WARNING: Node X1:X16:N001 is floating.
WARNING: Node X1:X16:N005 is floating.
WARNING: Node X1:X16:N006 is floating.
WARNING: Node X1:X16:N009 is floating.
WARNING: Node X1:X17:N002 is floating.
WARNING: Node X1:X17:N008 is floating.
WARNING: Node X1:X17:N001 is floating.
WARNING: Node X1:X17:N005 is floating.
WARNING: Node X1:X17:N006 is floating.
WARNING: Node X1:X17:N009 is floating.
WARNING: Node X1:X18:N005 is floating.
WARNING: Node X1:X18:N003 is floating.
WARNING: Node X1:X18:N002 is floating.
WARNING: Node X1:X18:N001 is floating.
WARNING: Node X1:X19:N005 is floating.
WARNING: Node X1:X19:N003 is floating.
WARNING: Node X1:X19:N002 is floating.
WARNING: Node X1:X19:N001 is floating.
WARNING: Node X1:X20:N005 is floating.
WARNING: Node X1:X20:N003 is floating.
WARNING: Node X1:X20:N002 is floating.
WARNING: Node X1:X20:N001 is floating.

WARNING: Less than two connections to node SEL.  This node is used by VSEL.
WARNING: Less than two connections to node X1:X1:N002.  This node is used by M:X1:X1:1.
WARNING: Less than two connections to node X1:X1:N008.  This node is used by M:X1:X1:2.
WARNING: Less than two connections to node X1:X1:N001.  This node is used by M:X1:X1:4.
WARNING: Less than two connections to node X1:X1:N005.  This node is used by M:X1:X1:5.
WARNING: Less than two connections to node X1:X1:N006.  This node is used by M:X1:X1:6.
WARNING: Less than two connections to node X1:X1:N009.  This node is used by M:X1:X1:11.
WARNING: Less than two connections to node X1:X2:N002.  This node is used by M:X1:X2:1.
WARNING: Less than two connections to node X1:X2:N008.  This node is used by M:X1:X2:2.
WARNING: Less than two connections to node X1:X2:N001.  This node is used by M:X1:X2:4.
WARNING: Less than two connections to node X1:X2:N005.  This node is used by M:X1:X2:5.
WARNING: Less than two connections to node X1:X2:N006.  This node is used by M:X1:X2:6.
WARNING: Less than two connections to node X1:X2:N009.  This node is used by M:X1:X2:11.
WARNING: Less than two connections to node X1:X3:N005.  This node is used by M:X1:X3:2.
WARNING: Less than two connections to node X1:X3:N003.  This node is used by M:X1:X3:3.
WARNING: Less than two connections to node X1:X3:N002.  This node is used by M:X1:X3:4.
WARNING: Less than two connections to node X1:X3:N001.  This node is used by M:X1:X3:5.
WARNING: Less than two connections to node X1:X4:N005.  This node is used by M:X1:X4:2.
WARNING: Less than two connections to node X1:X4:N003.  This node is used by M:X1:X4:3.
WARNING: Less than two connections to node X1:X4:N002.  This node is used by M:X1:X4:4.
WARNING: Less than two connections to node X1:X4:N001.  This node is used by M:X1:X4:5.
WARNING: Less than two connections to node X1:X6:N005.  This node is used by M:X1:X6:2.
WARNING: Less than two connections to node X1:X6:N003.  This node is used by M:X1:X6:3.
WARNING: Less than two connections to node X1:X6:N002.  This node is used by M:X1:X6:4.
WARNING: Less than two connections to node X1:X6:N001.  This node is used by M:X1:X6:5.
WARNING: Less than two connections to node X1:X11:N002.  This node is used by M:X1:X11:1.
WARNING: Less than two connections to node X1:X11:N008.  This node is used by M:X1:X11:2.
WARNING: Less than two connections to node X1:X11:N001.  This node is used by M:X1:X11:4.
WARNING: Less than two connections to node X1:X11:N005.  This node is used by M:X1:X11:5.
WARNING: Less than two connections to node X1:X11:N006.  This node is used by M:X1:X11:6.
WARNING: Less than two connections to node X1:X11:N009.  This node is used by M:X1:X11:11.
WARNING: Less than two connections to node X1:X12:N002.  This node is used by M:X1:X12:1.
WARNING: Less than two connections to node X1:X12:N008.  This node is used by M:X1:X12:2.
WARNING: Less than two connections to node X1:X12:N001.  This node is used by M:X1:X12:4.
WARNING: Less than two connections to node X1:X12:N005.  This node is used by M:X1:X12:5.
WARNING: Less than two connections to node X1:X12:N006.  This node is used by M:X1:X12:6.
WARNING: Less than two connections to node X1:X12:N009.  This node is used by M:X1:X12:11.
WARNING: Less than two connections to node X1:X13:N005.  This node is used by M:X1:X13:2.
WARNING: Less than two connections to node X1:X13:N003.  This node is used by M:X1:X13:3.
WARNING: Less than two connections to node X1:X13:N002.  This node is used by M:X1:X13:4.
WARNING: Less than two connections to node X1:X13:N001.  This node is used by M:X1:X13:5.
WARNING: Less than two connections to node X1:X14:N005.  This node is used by M:X1:X14:2.
WARNING: Less than two connections to node X1:X14:N003.  This node is used by M:X1:X14:3.
WARNING: Less than two connections to node X1:X14:N002.  This node is used by M:X1:X14:4.
WARNING: Less than two connections to node X1:X14:N001.  This node is used by M:X1:X14:5.
WARNING: Less than two connections to node X1:X15:N005.  This node is used by M:X1:X15:2.
WARNING: Less than two connections to node X1:X15:N003.  This node is used by M:X1:X15:3.
WARNING: Less than two connections to node X1:X15:N002.  This node is used by M:X1:X15:4.
WARNING: Less than two connections to node X1:X15:N001.  This node is used by M:X1:X15:5.
WARNING: Less than two connections to node X1:X16:N002.  This node is used by M:X1:X16:1.
WARNING: Less than two connections to node X1:X16:N008.  This node is used by M:X1:X16:2.
WARNING: Less than two connections to node X1:X16:N001.  This node is used by M:X1:X16:4.
WARNING: Less than two connections to node X1:X16:N005.  This node is used by M:X1:X16:5.
WARNING: Less than two connections to node X1:X16:N006.  This node is used by M:X1:X16:6.
WARNING: Less than two connections to node X1:X16:N009.  This node is used by M:X1:X16:11.
WARNING: Less than two connections to node X1:X17:N002.  This node is used by M:X1:X17:1.
WARNING: Less than two connections to node X1:X17:N008.  This node is used by M:X1:X17:2.
WARNING: Less than two connections to node X1:X17:N001.  This node is used by M:X1:X17:4.
WARNING: Less than two connections to node X1:X17:N005.  This node is used by M:X1:X17:5.
WARNING: Less than two connections to node X1:X17:N006.  This node is used by M:X1:X17:6.
WARNING: Less than two connections to node X1:X17:N009.  This node is used by M:X1:X17:11.
WARNING: Less than two connections to node X1:X18:N005.  This node is used by M:X1:X18:2.
WARNING: Less than two connections to node X1:X18:N003.  This node is used by M:X1:X18:3.
WARNING: Less than two connections to node X1:X18:N002.  This node is used by M:X1:X18:4.
WARNING: Less than two connections to node X1:X18:N001.  This node is used by M:X1:X18:5.
WARNING: Less than two connections to node X1:X19:N005.  This node is used by M:X1:X19:2.
WARNING: Less than two connections to node X1:X19:N003.  This node is used by M:X1:X19:3.
WARNING: Less than two connections to node X1:X19:N002.  This node is used by M:X1:X19:4.
WARNING: Less than two connections to node X1:X19:N001.  This node is used by M:X1:X19:5.
WARNING: Less than two connections to node X1:X20:N005.  This node is used by M:X1:X20:2.
WARNING: Less than two connections to node X1:X20:N003.  This node is used by M:X1:X20:3.
WARNING: Less than two connections to node X1:X20:N002.  This node is used by M:X1:X20:4.
WARNING: Less than two connections to node X1:X20:N001.  This node is used by M:X1:X20:5.
Warning: Pd = 1.62e-013 is less than W.
Warning: Ps = 1.944e-013 is less than W.
Warning: Pd = 1.62e-013 is less than W.
Warning: Ps = 1.944e-013 is less than W.
Warning: Pd = 1.62e-013 is less than W.
Warning: Ps = 1.944e-013 is less than W.
Warning: Pd = 1.62e-013 is less than W.
Warning: Ps = 1.944e-013 is less than W.
Warning: Pd = 1.62e-013 is less than W.
Warning: Ps = 1.944e-013 is less than W.
Warning: Pd = 1.62e-013 is less than W.
Warning: Ps = 1.944e-013 is less than W.
Warning: Pd = 1.62e-013 is less than W.
Warning: Ps = 1.944e-013 is less than W.
Warning: Pd = 1.62e-013 is less than W.
Warning: Ps = 1.944e-013 is less than W.
Warning: Pd = 1.62e-013 is less than W.
Warning: Ps = 1.944e-013 is less than W.
Warning: Pd = 1.62e-013 is less than W.
Warning: Ps = 1.944e-013 is less than W.
Warning: Pd = 1.62e-013 is less than W.
Warning: Ps = 1.944e-013 is less than W.
Warning: Pd = 1.62e-013 is less than W.
Warning: Ps = 1.944e-013 is less than W.
Warning: Pd = 1.62e-013 is less than W.
Warning: Ps = 1.944e-013 is less than W.
Warning: Pd = 1.62e-013 is less than W.
Warning: Ps = 1.944e-013 is less than W.
Warning: Pd = 1.62e-013 is less than W.
Warning: Ps = 1.944e-013 is less than W.
Early termination of direct N-R iteration.
Direct Newton iteration failed to find .op point.  (Use ".option noopiter" to skip.)
Starting Gmin stepping
Gmin = 10
Gmin = 1.07374
Gmin = 0.115292
Gmin = 0.0123794
Gmin = 0.00132923
Gmin = 0.000142725
Gmin = 1.5325e-005
Gmin = 1.6455e-006
Gmin = 1.76685e-007
Gmin = 1.89714e-008
Gmin = 2.03704e-009
Gmin = 2.18725e-010
Gmin = 2.34854e-011
Gmin = 2.52173e-012
Gmin = 2.70769e-013
Gmin = 0
Gmin stepping succeeded in finding the operating point.


Date: Wed Jun 08 17:24:31 2022
Total elapsed time: 0.338 seconds.

tnom = 27
temp = 27
method = modified trap
totiter = 3303
traniter = 2928
tranpoints = 1247
accept = 1182
rejected = 65
matrix size = 148
fillins = 22
solver = Normal
Thread vector: 91.6/47.8[8] 14.1/7.7[8] 4.2/2.8[6] 0.6/1.7[1]  2592/500
Matrix Compiler1: 20.20 KB object code size  5.4/2.3/[1.1]
Matrix Compiler2: 18.58 KB object code size  2.4/2.4/[0.6]

