Circuit: * C:\Users\frede\OneDrive\Bureau\UdeS_S4_APP3\alu_test_dc.asc

WARNING: Node X1:X1:X1:N002 is floating.
WARNING: Node X1:X1:X1:N008 is floating.
WARNING: Node X1:X1:X1:N001 is floating.
WARNING: Node X1:X1:X1:N005 is floating.
WARNING: Node X1:X1:X1:N006 is floating.
WARNING: Node X1:X1:X1:N009 is floating.
WARNING: Node X1:X1:X2:N002 is floating.
WARNING: Node X1:X1:X2:N008 is floating.
WARNING: Node X1:X1:X2:N001 is floating.
WARNING: Node X1:X1:X2:N005 is floating.
WARNING: Node X1:X1:X2:N006 is floating.
WARNING: Node X1:X1:X2:N009 is floating.
WARNING: Node X1:X1:X3:N005 is floating.
WARNING: Node X1:X1:X3:N003 is floating.
WARNING: Node X1:X1:X3:N002 is floating.
WARNING: Node X1:X1:X3:N001 is floating.
WARNING: Node X1:X1:X4:N005 is floating.
WARNING: Node X1:X1:X4:N003 is floating.
WARNING: Node X1:X1:X4:N002 is floating.
WARNING: Node X1:X1:X4:N001 is floating.
WARNING: Node X1:X1:X6:N005 is floating.
WARNING: Node X1:X1:X6:N003 is floating.
WARNING: Node X1:X1:X6:N002 is floating.
WARNING: Node X1:X1:X6:N001 is floating.
WARNING: Node X1:X1:X11:N002 is floating.
WARNING: Node X1:X1:X11:N008 is floating.
WARNING: Node X1:X1:X11:N001 is floating.
WARNING: Node X1:X1:X11:N005 is floating.
WARNING: Node X1:X1:X11:N006 is floating.
WARNING: Node X1:X1:X11:N009 is floating.
WARNING: Node X1:X1:X12:N002 is floating.
WARNING: Node X1:X1:X12:N008 is floating.
WARNING: Node X1:X1:X12:N001 is floating.
WARNING: Node X1:X1:X12:N005 is floating.
WARNING: Node X1:X1:X12:N006 is floating.
WARNING: Node X1:X1:X12:N009 is floating.
WARNING: Node X1:X1:X13:N005 is floating.
WARNING: Node X1:X1:X13:N003 is floating.
WARNING: Node X1:X1:X13:N002 is floating.
WARNING: Node X1:X1:X13:N001 is floating.
WARNING: Node X1:X1:X14:N005 is floating.
WARNING: Node X1:X1:X14:N003 is floating.
WARNING: Node X1:X1:X14:N002 is floating.
WARNING: Node X1:X1:X14:N001 is floating.
WARNING: Node X1:X1:X15:N005 is floating.
WARNING: Node X1:X1:X15:N003 is floating.
WARNING: Node X1:X1:X15:N002 is floating.
WARNING: Node X1:X1:X15:N001 is floating.
WARNING: Node X1:X1:X16:N002 is floating.
WARNING: Node X1:X1:X16:N008 is floating.
WARNING: Node X1:X1:X16:N001 is floating.
WARNING: Node X1:X1:X16:N005 is floating.
WARNING: Node X1:X1:X16:N006 is floating.
WARNING: Node X1:X1:X16:N009 is floating.
WARNING: Node X1:X1:X17:N002 is floating.
WARNING: Node X1:X1:X17:N008 is floating.
WARNING: Node X1:X1:X17:N001 is floating.
WARNING: Node X1:X1:X17:N005 is floating.
WARNING: Node X1:X1:X17:N006 is floating.
WARNING: Node X1:X1:X17:N009 is floating.
WARNING: Node X1:X1:X18:N005 is floating.
WARNING: Node X1:X1:X18:N003 is floating.
WARNING: Node X1:X1:X18:N002 is floating.
WARNING: Node X1:X1:X18:N001 is floating.
WARNING: Node X1:X1:X19:N005 is floating.
WARNING: Node X1:X1:X19:N003 is floating.
WARNING: Node X1:X1:X19:N002 is floating.
WARNING: Node X1:X1:X19:N001 is floating.
WARNING: Node X1:X1:X20:N005 is floating.
WARNING: Node X1:X1:X20:N003 is floating.
WARNING: Node X1:X1:X20:N002 is floating.
WARNING: Node X1:X1:X20:N001 is floating.
WARNING: Node X1:X2:X1:N005 is floating.
WARNING: Node X1:X2:X1:N003 is floating.
WARNING: Node X1:X2:X1:N002 is floating.
WARNING: Node X1:X2:X1:N001 is floating.
WARNING: Node X1:X2:X2:N005 is floating.
WARNING: Node X1:X2:X2:N003 is floating.
WARNING: Node X1:X2:X2:N002 is floating.
WARNING: Node X1:X2:X2:N001 is floating.
WARNING: Node X1:X2:X3:N005 is floating.
WARNING: Node X1:X2:X3:N003 is floating.
WARNING: Node X1:X2:X3:N002 is floating.
WARNING: Node X1:X2:X3:N001 is floating.
WARNING: Node X1:X2:X4:N005 is floating.
WARNING: Node X1:X2:X4:N003 is floating.
WARNING: Node X1:X2:X4:N002 is floating.
WARNING: Node X1:X2:X4:N001 is floating.
WARNING: Node X1:X2:X5:N005 is floating.
WARNING: Node X1:X2:X5:N003 is floating.
WARNING: Node X1:X2:X5:N002 is floating.
WARNING: Node X1:X2:X5:N001 is floating.
WARNING: Node X1:X2:X6:N005 is floating.
WARNING: Node X1:X2:X6:N003 is floating.
WARNING: Node X1:X2:X6:N002 is floating.
WARNING: Node X1:X2:X6:N001 is floating.
WARNING: Node X1:X3:X1:N005 is floating.
WARNING: Node X1:X3:X1:N003 is floating.
WARNING: Node X1:X3:X1:N002 is floating.
WARNING: Node X1:X3:X1:N001 is floating.
WARNING: Node X1:X3:X2:N005 is floating.
WARNING: Node X1:X3:X2:N003 is floating.
WARNING: Node X1:X3:X2:N002 is floating.
WARNING: Node X1:X3:X2:N001 is floating.
WARNING: Node X1:X3:X7:N005 is floating.
WARNING: Node X1:X3:X7:N003 is floating.
WARNING: Node X1:X3:X7:N002 is floating.
WARNING: Node X1:X3:X7:N001 is floating.
WARNING: Node X1:X3:X8:N005 is floating.
WARNING: Node X1:X3:X8:N003 is floating.
WARNING: Node X1:X3:X8:N002 is floating.
WARNING: Node X1:X3:X8:N001 is floating.
WARNING: Node X1:X3:X3:N005 is floating.
WARNING: Node X1:X3:X3:N003 is floating.
WARNING: Node X1:X3:X3:N002 is floating.
WARNING: Node X1:X3:X3:N001 is floating.
WARNING: Node X1:X3:X4:N005 is floating.
WARNING: Node X1:X3:X4:N003 is floating.
WARNING: Node X1:X3:X4:N002 is floating.
WARNING: Node X1:X3:X4:N001 is floating.
WARNING: Node X1:X3:X5:N005 is floating.
WARNING: Node X1:X3:X5:N003 is floating.
WARNING: Node X1:X3:X5:N002 is floating.
WARNING: Node X1:X3:X5:N001 is floating.
WARNING: Node X1:X3:X6:N005 is floating.
WARNING: Node X1:X3:X6:N003 is floating.
WARNING: Node X1:X3:X6:N002 is floating.
WARNING: Node X1:X3:X6:N001 is floating.
WARNING: Node X1:X3:X9:N005 is floating.
WARNING: Node X1:X3:X9:N003 is floating.
WARNING: Node X1:X3:X9:N002 is floating.
WARNING: Node X1:X3:X9:N001 is floating.
WARNING: Node X1:X3:X10:N005 is floating.
WARNING: Node X1:X3:X10:N003 is floating.
WARNING: Node X1:X3:X10:N002 is floating.
WARNING: Node X1:X3:X10:N001 is floating.
WARNING: Node X1:X3:X11:N005 is floating.
WARNING: Node X1:X3:X11:N003 is floating.
WARNING: Node X1:X3:X11:N002 is floating.
WARNING: Node X1:X3:X11:N001 is floating.
WARNING: Node X1:X3:X12:N005 is floating.
WARNING: Node X1:X3:X12:N003 is floating.
WARNING: Node X1:X3:X12:N002 is floating.
WARNING: Node X1:X3:X12:N001 is floating.

WARNING: Less than two connections to node X1:X1:X1:N002.  This node is used by M:X1:X1:X1:1.
WARNING: Less than two connections to node X1:X1:X1:N008.  This node is used by M:X1:X1:X1:2.
WARNING: Less than two connections to node X1:X1:X1:N001.  This node is used by M:X1:X1:X1:4.
WARNING: Less than two connections to node X1:X1:X1:N005.  This node is used by M:X1:X1:X1:5.
WARNING: Less than two connections to node X1:X1:X1:N006.  This node is used by M:X1:X1:X1:6.
WARNING: Less than two connections to node X1:X1:X1:N009.  This node is used by M:X1:X1:X1:11.
WARNING: Less than two connections to node X1:X1:X2:N002.  This node is used by M:X1:X1:X2:1.
WARNING: Less than two connections to node X1:X1:X2:N008.  This node is used by M:X1:X1:X2:2.
WARNING: Less than two connections to node X1:X1:X2:N001.  This node is used by M:X1:X1:X2:4.
WARNING: Less than two connections to node X1:X1:X2:N005.  This node is used by M:X1:X1:X2:5.
WARNING: Less than two connections to node X1:X1:X2:N006.  This node is used by M:X1:X1:X2:6.
WARNING: Less than two connections to node X1:X1:X2:N009.  This node is used by M:X1:X1:X2:11.
WARNING: Less than two connections to node X1:X1:X3:N005.  This node is used by M:X1:X1:X3:2.
WARNING: Less than two connections to node X1:X1:X3:N003.  This node is used by M:X1:X1:X3:3.
WARNING: Less than two connections to node X1:X1:X3:N002.  This node is used by M:X1:X1:X3:4.
WARNING: Less than two connections to node X1:X1:X3:N001.  This node is used by M:X1:X1:X3:5.
WARNING: Less than two connections to node X1:X1:X4:N005.  This node is used by M:X1:X1:X4:2.
WARNING: Less than two connections to node X1:X1:X4:N003.  This node is used by M:X1:X1:X4:3.
WARNING: Less than two connections to node X1:X1:X4:N002.  This node is used by M:X1:X1:X4:4.
WARNING: Less than two connections to node X1:X1:X4:N001.  This node is used by M:X1:X1:X4:5.
WARNING: Less than two connections to node X1:X1:X6:N005.  This node is used by M:X1:X1:X6:2.
WARNING: Less than two connections to node X1:X1:X6:N003.  This node is used by M:X1:X1:X6:3.
WARNING: Less than two connections to node X1:X1:X6:N002.  This node is used by M:X1:X1:X6:4.
WARNING: Less than two connections to node X1:X1:X6:N001.  This node is used by M:X1:X1:X6:5.
WARNING: Less than two connections to node X1:X1:X11:N002.  This node is used by M:X1:X1:X11:1.
WARNING: Less than two connections to node X1:X1:X11:N008.  This node is used by M:X1:X1:X11:2.
WARNING: Less than two connections to node X1:X1:X11:N001.  This node is used by M:X1:X1:X11:4.
WARNING: Less than two connections to node X1:X1:X11:N005.  This node is used by M:X1:X1:X11:5.
WARNING: Less than two connections to node X1:X1:X11:N006.  This node is used by M:X1:X1:X11:6.
WARNING: Less than two connections to node X1:X1:X11:N009.  This node is used by M:X1:X1:X11:11.
WARNING: Less than two connections to node X1:X1:X12:N002.  This node is used by M:X1:X1:X12:1.
WARNING: Less than two connections to node X1:X1:X12:N008.  This node is used by M:X1:X1:X12:2.
WARNING: Less than two connections to node X1:X1:X12:N001.  This node is used by M:X1:X1:X12:4.
WARNING: Less than two connections to node X1:X1:X12:N005.  This node is used by M:X1:X1:X12:5.
WARNING: Less than two connections to node X1:X1:X12:N006.  This node is used by M:X1:X1:X12:6.
WARNING: Less than two connections to node X1:X1:X12:N009.  This node is used by M:X1:X1:X12:11.
WARNING: Less than two connections to node X1:X1:X13:N005.  This node is used by M:X1:X1:X13:2.
WARNING: Less than two connections to node X1:X1:X13:N003.  This node is used by M:X1:X1:X13:3.
WARNING: Less than two connections to node X1:X1:X13:N002.  This node is used by M:X1:X1:X13:4.
WARNING: Less than two connections to node X1:X1:X13:N001.  This node is used by M:X1:X1:X13:5.
WARNING: Less than two connections to node X1:X1:X14:N005.  This node is used by M:X1:X1:X14:2.
WARNING: Less than two connections to node X1:X1:X14:N003.  This node is used by M:X1:X1:X14:3.
WARNING: Less than two connections to node X1:X1:X14:N002.  This node is used by M:X1:X1:X14:4.
WARNING: Less than two connections to node X1:X1:X14:N001.  This node is used by M:X1:X1:X14:5.
WARNING: Less than two connections to node X1:X1:X15:N005.  This node is used by M:X1:X1:X15:2.
WARNING: Less than two connections to node X1:X1:X15:N003.  This node is used by M:X1:X1:X15:3.
WARNING: Less than two connections to node X1:X1:X15:N002.  This node is used by M:X1:X1:X15:4.
WARNING: Less than two connections to node X1:X1:X15:N001.  This node is used by M:X1:X1:X15:5.
WARNING: Less than two connections to node X1:X1:X16:N002.  This node is used by M:X1:X1:X16:1.
WARNING: Less than two connections to node X1:X1:X16:N008.  This node is used by M:X1:X1:X16:2.
WARNING: Less than two connections to node X1:X1:X16:N001.  This node is used by M:X1:X1:X16:4.
WARNING: Less than two connections to node X1:X1:X16:N005.  This node is used by M:X1:X1:X16:5.
WARNING: Less than two connections to node X1:X1:X16:N006.  This node is used by M:X1:X1:X16:6.
WARNING: Less than two connections to node X1:X1:X16:N009.  This node is used by M:X1:X1:X16:11.
WARNING: Less than two connections to node X1:X1:X17:N002.  This node is used by M:X1:X1:X17:1.
WARNING: Less than two connections to node X1:X1:X17:N008.  This node is used by M:X1:X1:X17:2.
WARNING: Less than two connections to node X1:X1:X17:N001.  This node is used by M:X1:X1:X17:4.
WARNING: Less than two connections to node X1:X1:X17:N005.  This node is used by M:X1:X1:X17:5.
WARNING: Less than two connections to node X1:X1:X17:N006.  This node is used by M:X1:X1:X17:6.
WARNING: Less than two connections to node X1:X1:X17:N009.  This node is used by M:X1:X1:X17:11.
WARNING: Less than two connections to node X1:X1:X18:N005.  This node is used by M:X1:X1:X18:2.
WARNING: Less than two connections to node X1:X1:X18:N003.  This node is used by M:X1:X1:X18:3.
WARNING: Less than two connections to node X1:X1:X18:N002.  This node is used by M:X1:X1:X18:4.
WARNING: Less than two connections to node X1:X1:X18:N001.  This node is used by M:X1:X1:X18:5.
WARNING: Less than two connections to node X1:X1:X19:N005.  This node is used by M:X1:X1:X19:2.
WARNING: Less than two connections to node X1:X1:X19:N003.  This node is used by M:X1:X1:X19:3.
WARNING: Less than two connections to node X1:X1:X19:N002.  This node is used by M:X1:X1:X19:4.
WARNING: Less than two connections to node X1:X1:X19:N001.  This node is used by M:X1:X1:X19:5.
WARNING: Less than two connections to node X1:X1:X20:N005.  This node is used by M:X1:X1:X20:2.
WARNING: Less than two connections to node X1:X1:X20:N003.  This node is used by M:X1:X1:X20:3.
WARNING: Less than two connections to node X1:X1:X20:N002.  This node is used by M:X1:X1:X20:4.
WARNING: Less than two connections to node X1:X1:X20:N001.  This node is used by M:X1:X1:X20:5.
WARNING: Less than two connections to node X1:X2:X1:N005.  This node is used by M:X1:X2:X1:2.
WARNING: Less than two connections to node X1:X2:X1:N003.  This node is used by M:X1:X2:X1:3.
WARNING: Less than two connections to node X1:X2:X1:N002.  This node is used by M:X1:X2:X1:4.
WARNING: Less than two connections to node X1:X2:X1:N001.  This node is used by M:X1:X2:X1:5.
WARNING: Less than two connections to node X1:X2:X2:N005.  This node is used by M:X1:X2:X2:2.
WARNING: Less than two connections to node X1:X2:X2:N003.  This node is used by M:X1:X2:X2:3.
WARNING: Less than two connections to node X1:X2:X2:N002.  This node is used by M:X1:X2:X2:4.
WARNING: Less than two connections to node X1:X2:X2:N001.  This node is used by M:X1:X2:X2:5.
WARNING: Less than two connections to node X1:X2:X3:N005.  This node is used by M:X1:X2:X3:2.
WARNING: Less than two connections to node X1:X2:X3:N003.  This node is used by M:X1:X2:X3:3.
WARNING: Less than two connections to node X1:X2:X3:N002.  This node is used by M:X1:X2:X3:4.
WARNING: Less than two connections to node X1:X2:X3:N001.  This node is used by M:X1:X2:X3:5.
WARNING: Less than two connections to node X1:X2:X4:N005.  This node is used by M:X1:X2:X4:2.
WARNING: Less than two connections to node X1:X2:X4:N003.  This node is used by M:X1:X2:X4:3.
WARNING: Less than two connections to node X1:X2:X4:N002.  This node is used by M:X1:X2:X4:4.
WARNING: Less than two connections to node X1:X2:X4:N001.  This node is used by M:X1:X2:X4:5.
WARNING: Less than two connections to node X1:X2:X5:N005.  This node is used by M:X1:X2:X5:2.
WARNING: Less than two connections to node X1:X2:X5:N003.  This node is used by M:X1:X2:X5:3.
WARNING: Less than two connections to node X1:X2:X5:N002.  This node is used by M:X1:X2:X5:4.
WARNING: Less than two connections to node X1:X2:X5:N001.  This node is used by M:X1:X2:X5:5.
WARNING: Less than two connections to node X1:X2:X6:N005.  This node is used by M:X1:X2:X6:2.
WARNING: Less than two connections to node X1:X2:X6:N003.  This node is used by M:X1:X2:X6:3.
WARNING: Less than two connections to node X1:X2:X6:N002.  This node is used by M:X1:X2:X6:4.
WARNING: Less than two connections to node X1:X2:X6:N001.  This node is used by M:X1:X2:X6:5.
WARNING: Less than two connections to node X1:X3:X1:N005.  This node is used by M:X1:X3:X1:2.
WARNING: Less than two connections to node X1:X3:X1:N003.  This node is used by M:X1:X3:X1:3.
WARNING: Less than two connections to node X1:X3:X1:N002.  This node is used by M:X1:X3:X1:4.
WARNING: Less than two connections to node X1:X3:X1:N001.  This node is used by M:X1:X3:X1:5.
WARNING: Less than two connections to node X1:X3:X2:N005.  This node is used by M:X1:X3:X2:2.
WARNING: Less than two connections to node X1:X3:X2:N003.  This node is used by M:X1:X3:X2:3.
WARNING: Less than two connections to node X1:X3:X2:N002.  This node is used by M:X1:X3:X2:4.
WARNING: Less than two connections to node X1:X3:X2:N001.  This node is used by M:X1:X3:X2:5.
WARNING: Less than two connections to node X1:X3:X7:N005.  This node is used by M:X1:X3:X7:2.
WARNING: Less than two connections to node X1:X3:X7:N003.  This node is used by M:X1:X3:X7:3.
WARNING: Less than two connections to node X1:X3:X7:N002.  This node is used by M:X1:X3:X7:4.
WARNING: Less than two connections to node X1:X3:X7:N001.  This node is used by M:X1:X3:X7:5.
WARNING: Less than two connections to node X1:X3:X8:N005.  This node is used by M:X1:X3:X8:2.
WARNING: Less than two connections to node X1:X3:X8:N003.  This node is used by M:X1:X3:X8:3.
WARNING: Less than two connections to node X1:X3:X8:N002.  This node is used by M:X1:X3:X8:4.
WARNING: Less than two connections to node X1:X3:X8:N001.  This node is used by M:X1:X3:X8:5.
WARNING: Less than two connections to node X1:X3:X3:N005.  This node is used by M:X1:X3:X3:2.
WARNING: Less than two connections to node X1:X3:X3:N003.  This node is used by M:X1:X3:X3:3.
WARNING: Less than two connections to node X1:X3:X3:N002.  This node is used by M:X1:X3:X3:4.
WARNING: Less than two connections to node X1:X3:X3:N001.  This node is used by M:X1:X3:X3:5.
WARNING: Less than two connections to node X1:X3:X4:N005.  This node is used by M:X1:X3:X4:2.
WARNING: Less than two connections to node X1:X3:X4:N003.  This node is used by M:X1:X3:X4:3.
WARNING: Less than two connections to node X1:X3:X4:N002.  This node is used by M:X1:X3:X4:4.
WARNING: Less than two connections to node X1:X3:X4:N001.  This node is used by M:X1:X3:X4:5.
WARNING: Less than two connections to node X1:X3:X5:N005.  This node is used by M:X1:X3:X5:2.
WARNING: Less than two connections to node X1:X3:X5:N003.  This node is used by M:X1:X3:X5:3.
WARNING: Less than two connections to node X1:X3:X5:N002.  This node is used by M:X1:X3:X5:4.
WARNING: Less than two connections to node X1:X3:X5:N001.  This node is used by M:X1:X3:X5:5.
WARNING: Less than two connections to node X1:X3:X6:N005.  This node is used by M:X1:X3:X6:2.
WARNING: Less than two connections to node X1:X3:X6:N003.  This node is used by M:X1:X3:X6:3.
WARNING: Less than two connections to node X1:X3:X6:N002.  This node is used by M:X1:X3:X6:4.
WARNING: Less than two connections to node X1:X3:X6:N001.  This node is used by M:X1:X3:X6:5.
WARNING: Less than two connections to node X1:X3:X9:N005.  This node is used by M:X1:X3:X9:2.
WARNING: Less than two connections to node X1:X3:X9:N003.  This node is used by M:X1:X3:X9:3.
WARNING: Less than two connections to node X1:X3:X9:N002.  This node is used by M:X1:X3:X9:4.
WARNING: Less than two connections to node X1:X3:X9:N001.  This node is used by M:X1:X3:X9:5.
WARNING: Less than two connections to node X1:X3:X10:N005.  This node is used by M:X1:X3:X10:2.
WARNING: Less than two connections to node X1:X3:X10:N003.  This node is used by M:X1:X3:X10:3.
WARNING: Less than two connections to node X1:X3:X10:N002.  This node is used by M:X1:X3:X10:4.
WARNING: Less than two connections to node X1:X3:X10:N001.  This node is used by M:X1:X3:X10:5.
WARNING: Less than two connections to node X1:X3:X11:N005.  This node is used by M:X1:X3:X11:2.
WARNING: Less than two connections to node X1:X3:X11:N003.  This node is used by M:X1:X3:X11:3.
WARNING: Less than two connections to node X1:X3:X11:N002.  This node is used by M:X1:X3:X11:4.
WARNING: Less than two connections to node X1:X3:X11:N001.  This node is used by M:X1:X3:X11:5.
WARNING: Less than two connections to node X1:X3:X12:N005.  This node is used by M:X1:X3:X12:2.
WARNING: Less than two connections to node X1:X3:X12:N003.  This node is used by M:X1:X3:X12:3.
WARNING: Less than two connections to node X1:X3:X12:N002.  This node is used by M:X1:X3:X12:4.
WARNING: Less than two connections to node X1:X3:X12:N001.  This node is used by M:X1:X3:X12:5.
WARNING: Less than two connections to node NC_01.  This node is used by VB1.
Warning: Pd = 1.62e-013 is less than W.
Warning: Ps = 1.944e-013 is less than W.
Warning: Pd = 1.62e-013 is less than W.
Warning: Ps = 1.944e-013 is less than W.
Warning: Pd = 1.62e-013 is less than W.
Warning: Ps = 1.944e-013 is less than W.
Warning: Pd = 1.62e-013 is less than W.
Warning: Ps = 1.944e-013 is less than W.
Warning: Pd = 1.62e-013 is less than W.
Warning: Ps = 1.944e-013 is less than W.
Warning: Pd = 1.62e-013 is less than W.
Warning: Ps = 1.944e-013 is less than W.
Warning: Pd = 1.62e-013 is less than W.
Warning: Ps = 1.944e-013 is less than W.
Warning: Pd = 1.62e-013 is less than W.
Warning: Ps = 1.944e-013 is less than W.
Warning: Pd = 1.62e-013 is less than W.
Warning: Ps = 1.944e-013 is less than W.
Warning: Pd = 1.62e-013 is less than W.
Warning: Ps = 1.944e-013 is less than W.
Warning: Pd = 1.62e-013 is less than W.
Warning: Ps = 1.944e-013 is less than W.
Warning: Pd = 1.62e-013 is less than W.
Warning: Ps = 1.944e-013 is less than W.
Warning: Pd = 1.62e-013 is less than W.
Warning: Ps = 1.944e-013 is less than W.
Warning: Pd = 1.62e-013 is less than W.
Warning: Ps = 1.944e-013 is less than W.
Warning: Pd = 1.62e-013 is less than W.
Warning: Ps = 1.944e-013 is less than W.
Warning: Pd = 1.62e-013 is less than W.
Warning: Ps = 1.944e-013 is less than W.
Warning: Pd = 1.62e-013 is less than W.
Warning: Ps = 1.944e-013 is less than W.
Warning: Pd = 1.62e-013 is less than W.
Warning: Ps = 1.944e-013 is less than W.
Warning: Pd = 1.62e-013 is less than W.
Warning: Ps = 1.944e-013 is less than W.
Warning: Pd = 1.62e-013 is less than W.
Warning: Ps = 1.944e-013 is less than W.
Warning: Pd = 1.62e-013 is less than W.
Warning: Ps = 1.944e-013 is less than W.
Warning: Pd = 1.62e-013 is less than W.
Warning: Ps = 1.944e-013 is less than W.
Warning: Pd = 1.62e-013 is less than W.
Warning: Ps = 1.944e-013 is less than W.
Warning: Pd = 1.62e-013 is less than W.
Warning: Ps = 1.944e-013 is less than W.
Warning: Pd = 1.62e-013 is less than W.
Warning: Ps = 1.944e-013 is less than W.
Warning: Pd = 1.62e-013 is less than W.
Warning: Ps = 1.944e-013 is less than W.
Warning: Pd = 1.62e-013 is less than W.
Warning: Ps = 1.944e-013 is less than W.
Warning: Pd = 1.62e-013 is less than W.
Warning: Ps = 1.944e-013 is less than W.
Warning: Pd = 1.62e-013 is less than W.
Warning: Ps = 1.944e-013 is less than W.
Warning: Pd = 1.62e-013 is less than W.
Warning: Ps = 1.944e-013 is less than W.
Warning: Pd = 1.62e-013 is less than W.
Warning: Ps = 1.944e-013 is less than W.
Warning: Pd = 1.62e-013 is less than W.
Warning: Ps = 1.944e-013 is less than W.
Warning: Pd = 1.62e-013 is less than W.
Warning: Ps = 1.944e-013 is less than W.

Date: Wed Jun 08 11:45:47 2022
Total elapsed time: 0.357 seconds.

tnom = 27
temp = 27
method = trap
totiter = 40
traniter = 0
tranpoints = 0
accept = 0
rejected = 0
matrix size = 290
fillins = 1058
solver = Normal

