Circuit: * C:\Users\frede\OneDrive\Bureau\UdeS_S4_APP3\and3b_test.asc

WARNING: Less than two connections to node SEL.  This node is used by VSEL.

Date: Mon Jun 06 18:06:03 2022
Total elapsed time: 0.113 seconds.

tnom = 27
temp = 27
method = trap
totiter = 28
traniter = 0
tranpoints = 0
accept = 0
rejected = 0
matrix size = 26
fillins = 0
solver = Normal
Matrix Compiler1: 804 bytes object code size
Matrix Compiler2: 1.63 KB object code size
