Circuit: * C:\Users\frede\OneDrive\Bureau\UdeS_S4_APP3\and3b_test.asc

WARNING: Node X1:X1:NC_01 is floating.
WARNING: Node X1:X1:NC_02 is floating.
WARNING: Node X1:X1:NC_03 is floating.
WARNING: Node X1:X1:NC_04 is floating.
WARNING: Node X1:X2:NC_01 is floating.
WARNING: Node X1:X2:NC_02 is floating.
WARNING: Node X1:X2:NC_03 is floating.
WARNING: Node X1:X2:NC_04 is floating.
WARNING: Node X1:X3:NC_01 is floating.
WARNING: Node X1:X3:NC_02 is floating.
WARNING: Node X1:X3:NC_03 is floating.
WARNING: Node X1:X3:NC_04 is floating.
WARNING: Node X1:X4:NC_01 is floating.
WARNING: Node X1:X4:NC_02 is floating.
WARNING: Node X1:X4:NC_03 is floating.
WARNING: Node X1:X4:NC_04 is floating.
WARNING: Node X1:X5:NC_01 is floating.
WARNING: Node X1:X5:NC_02 is floating.
WARNING: Node X1:X5:NC_03 is floating.
WARNING: Node X1:X5:NC_04 is floating.
WARNING: Node X1:X6:NC_01 is floating.
WARNING: Node X1:X6:NC_02 is floating.
WARNING: Node X1:X6:NC_03 is floating.
WARNING: Node X1:X6:NC_04 is floating.

WARNING: Less than two connections to node SEL.  This node is used by VSEL.
WARNING: Less than two connections to node X1:X1:NC_01.  This node is used by M:X1:X1:2.
WARNING: Less than two connections to node X1:X1:NC_02.  This node is used by M:X1:X1:3.
WARNING: Less than two connections to node X1:X1:NC_03.  This node is used by M:X1:X1:4.
WARNING: Less than two connections to node X1:X1:NC_04.  This node is used by M:X1:X1:5.
WARNING: Less than two connections to node X1:X2:NC_01.  This node is used by M:X1:X2:2.
WARNING: Less than two connections to node X1:X2:NC_02.  This node is used by M:X1:X2:3.
WARNING: Less than two connections to node X1:X2:NC_03.  This node is used by M:X1:X2:4.
WARNING: Less than two connections to node X1:X2:NC_04.  This node is used by M:X1:X2:5.
WARNING: Less than two connections to node X1:X3:NC_01.  This node is used by M:X1:X3:2.
WARNING: Less than two connections to node X1:X3:NC_02.  This node is used by M:X1:X3:3.
WARNING: Less than two connections to node X1:X3:NC_03.  This node is used by M:X1:X3:4.
WARNING: Less than two connections to node X1:X3:NC_04.  This node is used by M:X1:X3:5.
WARNING: Less than two connections to node X1:X4:NC_01.  This node is used by M:X1:X4:2.
WARNING: Less than two connections to node X1:X4:NC_02.  This node is used by M:X1:X4:3.
WARNING: Less than two connections to node X1:X4:NC_03.  This node is used by M:X1:X4:4.
WARNING: Less than two connections to node X1:X4:NC_04.  This node is used by M:X1:X4:5.
WARNING: Less than two connections to node X1:X5:NC_01.  This node is used by M:X1:X5:2.
WARNING: Less than two connections to node X1:X5:NC_02.  This node is used by M:X1:X5:3.
WARNING: Less than two connections to node X1:X5:NC_03.  This node is used by M:X1:X5:4.
WARNING: Less than two connections to node X1:X5:NC_04.  This node is used by M:X1:X5:5.
WARNING: Less than two connections to node X1:X6:NC_01.  This node is used by M:X1:X6:2.
WARNING: Less than two connections to node X1:X6:NC_02.  This node is used by M:X1:X6:3.
WARNING: Less than two connections to node X1:X6:NC_03.  This node is used by M:X1:X6:4.
WARNING: Less than two connections to node X1:X6:NC_04.  This node is used by M:X1:X6:5.
WARNING: Less than two connections to node C.  This node is used by VC.
Warning: Pd = 9e-013 is less than W.
Warning: Ps = 1.08e-012 is less than W.
Warning: Pd = 9e-013 is less than W.
Warning: Ps = 1.08e-012 is less than W.
Warning: Pd = 9e-013 is less than W.
Warning: Ps = 1.08e-012 is less than W.
Warning: Pd = 9e-013 is less than W.
Warning: Ps = 1.08e-012 is less than W.
Warning: Pd = 9e-013 is less than W.
Warning: Ps = 1.08e-012 is less than W.
Warning: Pd = 9e-013 is less than W.
Warning: Ps = 1.08e-012 is less than W.

Date: Mon Jun 06 19:34:31 2022
Total elapsed time: 0.080 seconds.

tnom = 27
temp = 27
method = trap
totiter = 34
traniter = 0
tranpoints = 0
accept = 0
rejected = 0
matrix size = 60
fillins = 84
solver = Normal

