Circuit: * Z:\home\raesangur\github\UdeS_S4_APP3\and3b_test.asc

WARNING: Node X1:X5:N005 is floating.
WARNING: Node X1:X5:N003 is floating.
WARNING: Node X1:X5:N002 is floating.
WARNING: Node X1:X5:N001 is floating.
WARNING: Node X1:X6:N005 is floating.
WARNING: Node X1:X6:N003 is floating.
WARNING: Node X1:X6:N002 is floating.
WARNING: Node X1:X6:N001 is floating.
WARNING: Node X1:X1:N005 is floating.
WARNING: Node X1:X1:N003 is floating.
WARNING: Node X1:X1:N002 is floating.
WARNING: Node X1:X1:N001 is floating.
WARNING: Node X1:X2:N005 is floating.
WARNING: Node X1:X2:N003 is floating.
WARNING: Node X1:X2:N002 is floating.
WARNING: Node X1:X2:N001 is floating.
WARNING: Node X1:X3:N005 is floating.
WARNING: Node X1:X3:N003 is floating.
WARNING: Node X1:X3:N002 is floating.
WARNING: Node X1:X3:N001 is floating.
WARNING: Node X1:X4:N005 is floating.
WARNING: Node X1:X4:N003 is floating.
WARNING: Node X1:X4:N002 is floating.
WARNING: Node X1:X4:N001 is floating.

WARNING: Less than two connections to node SEL.  This node is used by VSEL.
WARNING: Less than two connections to node X1:X5:N005.  This node is used by M:X1:X5:2.
WARNING: Less than two connections to node X1:X5:N003.  This node is used by M:X1:X5:3.
WARNING: Less than two connections to node X1:X5:N002.  This node is used by M:X1:X5:4.
WARNING: Less than two connections to node X1:X5:N001.  This node is used by M:X1:X5:5.
WARNING: Less than two connections to node X1:X6:N005.  This node is used by M:X1:X6:2.
WARNING: Less than two connections to node X1:X6:N003.  This node is used by M:X1:X6:3.
WARNING: Less than two connections to node X1:X6:N002.  This node is used by M:X1:X6:4.
WARNING: Less than two connections to node X1:X6:N001.  This node is used by M:X1:X6:5.
WARNING: Less than two connections to node X1:X1:N005.  This node is used by M:X1:X1:2.
WARNING: Less than two connections to node X1:X1:N003.  This node is used by M:X1:X1:3.
WARNING: Less than two connections to node X1:X1:N002.  This node is used by M:X1:X1:4.
WARNING: Less than two connections to node X1:X1:N001.  This node is used by M:X1:X1:5.
WARNING: Less than two connections to node X1:X2:N005.  This node is used by M:X1:X2:2.
WARNING: Less than two connections to node X1:X2:N003.  This node is used by M:X1:X2:3.
WARNING: Less than two connections to node X1:X2:N002.  This node is used by M:X1:X2:4.
WARNING: Less than two connections to node X1:X2:N001.  This node is used by M:X1:X2:5.
WARNING: Less than two connections to node X1:X3:N005.  This node is used by M:X1:X3:2.
WARNING: Less than two connections to node X1:X3:N003.  This node is used by M:X1:X3:3.
WARNING: Less than two connections to node X1:X3:N002.  This node is used by M:X1:X3:4.
WARNING: Less than two connections to node X1:X3:N001.  This node is used by M:X1:X3:5.
WARNING: Less than two connections to node X1:X4:N005.  This node is used by M:X1:X4:2.
WARNING: Less than two connections to node X1:X4:N003.  This node is used by M:X1:X4:3.
WARNING: Less than two connections to node X1:X4:N002.  This node is used by M:X1:X4:4.
WARNING: Less than two connections to node X1:X4:N001.  This node is used by M:X1:X4:5.
WARNING: Less than two connections to node C.  This node is used by VC.
Warning: Pd = 1.62e-013 is less than W.
Warning: Ps = 1.944e-013 is less than W.
Warning: Pd = 1.62e-013 is less than W.
Warning: Ps = 1.944e-013 is less than W.
Warning: Pd = 1.62e-013 is less than W.
Warning: Ps = 1.944e-013 is less than W.
Warning: Pd = 1.62e-013 is less than W.
Warning: Ps = 1.944e-013 is less than W.
Warning: Pd = 1.62e-013 is less than W.
Warning: Ps = 1.944e-013 is less than W.
Warning: Pd = 1.62e-013 is less than W.
Warning: Ps = 1.944e-013 is less than W.
Direct Newton iteration for .op point succeeded.

t1: time=1.00036e-009 at 1.00036e-009
t2: time=1.00063e-009 at 1.00063e-009
t3: time=3.10212e-009 at 3.10212e-009
t4: time=3.04493e-009 at 3.04493e-009
transition_up: abs(t2-t1)=2.71465e-013
transition_down: abs(t4-t3)=5.71977e-011

Measurement "ratio" FAIL'ed


Date: Wed Jun 08 16:56:11 2022
Total elapsed time: 0.100 seconds.

tnom = 27
temp = 27
method = modified trap
totiter = 2629
traniter = 2613
tranpoints = 1206
accept = 1149
rejected = 57
matrix size = 60
fillins = 84
solver = Normal
Thread vector: 12.3/7.6[2] 1.7/1.3[2] 1.4/1.0[2] 0.2/0.8[1]  2592/500
Matrix Compiler1: 9.90 KB object code size  1.2/0.6/[0.4]
Matrix Compiler2: 7.40 KB object code size  0.4/0.6/[0.3]

