Circuit: * C:\Users\frede\OneDrive\Bureau\UdeS_S4_APP3\mux2x3b_test.asc

WARNING: Node X2:X1:NC_01 is floating.
WARNING: Node X2:X1:NC_02 is floating.
WARNING: Node X2:X1:NC_03 is floating.
WARNING: Node X2:X1:NC_04 is floating.
WARNING: Node X2:X2:NC_01 is floating.
WARNING: Node X2:X2:NC_02 is floating.
WARNING: Node X2:X2:NC_03 is floating.
WARNING: Node X2:X2:NC_04 is floating.
WARNING: Node X2:X7:NC_01 is floating.
WARNING: Node X2:X7:NC_02 is floating.
WARNING: Node X2:X7:NC_03 is floating.
WARNING: Node X2:X7:NC_04 is floating.
WARNING: Node X2:X8:NC_01 is floating.
WARNING: Node X2:X8:NC_02 is floating.
WARNING: Node X2:X8:NC_03 is floating.
WARNING: Node X2:X8:NC_04 is floating.
WARNING: Node X2:X3:NC_01 is floating.
WARNING: Node X2:X3:NC_02 is floating.
WARNING: Node X2:X3:NC_03 is floating.
WARNING: Node X2:X3:NC_04 is floating.
WARNING: Node X2:X4:NC_01 is floating.
WARNING: Node X2:X4:NC_02 is floating.
WARNING: Node X2:X4:NC_03 is floating.
WARNING: Node X2:X4:NC_04 is floating.
WARNING: Node X2:X5:NC_01 is floating.
WARNING: Node X2:X5:NC_02 is floating.
WARNING: Node X2:X5:NC_03 is floating.
WARNING: Node X2:X5:NC_04 is floating.
WARNING: Node X2:X6:NC_01 is floating.
WARNING: Node X2:X6:NC_02 is floating.
WARNING: Node X2:X6:NC_03 is floating.
WARNING: Node X2:X6:NC_04 is floating.
WARNING: Node X2:X9:NC_01 is floating.
WARNING: Node X2:X9:NC_02 is floating.
WARNING: Node X2:X9:NC_03 is floating.
WARNING: Node X2:X9:NC_04 is floating.
WARNING: Node X2:X10:NC_01 is floating.
WARNING: Node X2:X10:NC_02 is floating.
WARNING: Node X2:X10:NC_03 is floating.
WARNING: Node X2:X10:NC_04 is floating.
WARNING: Node X2:X11:NC_01 is floating.
WARNING: Node X2:X11:NC_02 is floating.
WARNING: Node X2:X11:NC_03 is floating.
WARNING: Node X2:X11:NC_04 is floating.
WARNING: Node X2:X12:NC_01 is floating.
WARNING: Node X2:X12:NC_02 is floating.
WARNING: Node X2:X12:NC_03 is floating.
WARNING: Node X2:X12:NC_04 is floating.

WARNING: Less than two connections to node X2:X1:NC_01.  This node is used by M:X2:X1:2.
WARNING: Less than two connections to node X2:X1:NC_02.  This node is used by M:X2:X1:3.
WARNING: Less than two connections to node X2:X1:NC_03.  This node is used by M:X2:X1:4.
WARNING: Less than two connections to node X2:X1:NC_04.  This node is used by M:X2:X1:5.
WARNING: Less than two connections to node X2:X2:NC_01.  This node is used by M:X2:X2:2.
WARNING: Less than two connections to node X2:X2:NC_02.  This node is used by M:X2:X2:3.
WARNING: Less than two connections to node X2:X2:NC_03.  This node is used by M:X2:X2:4.
WARNING: Less than two connections to node X2:X2:NC_04.  This node is used by M:X2:X2:5.
WARNING: Less than two connections to node X2:X7:NC_01.  This node is used by M:X2:X7:2.
WARNING: Less than two connections to node X2:X7:NC_02.  This node is used by M:X2:X7:3.
WARNING: Less than two connections to node X2:X7:NC_03.  This node is used by M:X2:X7:4.
WARNING: Less than two connections to node X2:X7:NC_04.  This node is used by M:X2:X7:5.
WARNING: Less than two connections to node X2:X8:NC_01.  This node is used by M:X2:X8:2.
WARNING: Less than two connections to node X2:X8:NC_02.  This node is used by M:X2:X8:3.
WARNING: Less than two connections to node X2:X8:NC_03.  This node is used by M:X2:X8:4.
WARNING: Less than two connections to node X2:X8:NC_04.  This node is used by M:X2:X8:5.
WARNING: Less than two connections to node X2:X3:NC_01.  This node is used by M:X2:X3:2.
WARNING: Less than two connections to node X2:X3:NC_02.  This node is used by M:X2:X3:3.
WARNING: Less than two connections to node X2:X3:NC_03.  This node is used by M:X2:X3:4.
WARNING: Less than two connections to node X2:X3:NC_04.  This node is used by M:X2:X3:5.
WARNING: Less than two connections to node X2:X4:NC_01.  This node is used by M:X2:X4:2.
WARNING: Less than two connections to node X2:X4:NC_02.  This node is used by M:X2:X4:3.
WARNING: Less than two connections to node X2:X4:NC_03.  This node is used by M:X2:X4:4.
WARNING: Less than two connections to node X2:X4:NC_04.  This node is used by M:X2:X4:5.
WARNING: Less than two connections to node X2:X5:NC_01.  This node is used by M:X2:X5:2.
WARNING: Less than two connections to node X2:X5:NC_02.  This node is used by M:X2:X5:3.
WARNING: Less than two connections to node X2:X5:NC_03.  This node is used by M:X2:X5:4.
WARNING: Less than two connections to node X2:X5:NC_04.  This node is used by M:X2:X5:5.
WARNING: Less than two connections to node X2:X6:NC_01.  This node is used by M:X2:X6:2.
WARNING: Less than two connections to node X2:X6:NC_02.  This node is used by M:X2:X6:3.
WARNING: Less than two connections to node X2:X6:NC_03.  This node is used by M:X2:X6:4.
WARNING: Less than two connections to node X2:X6:NC_04.  This node is used by M:X2:X6:5.
WARNING: Less than two connections to node X2:X9:NC_01.  This node is used by M:X2:X9:2.
WARNING: Less than two connections to node X2:X9:NC_02.  This node is used by M:X2:X9:3.
WARNING: Less than two connections to node X2:X9:NC_03.  This node is used by M:X2:X9:4.
WARNING: Less than two connections to node X2:X9:NC_04.  This node is used by M:X2:X9:5.
WARNING: Less than two connections to node X2:X10:NC_01.  This node is used by M:X2:X10:2.
WARNING: Less than two connections to node X2:X10:NC_02.  This node is used by M:X2:X10:3.
WARNING: Less than two connections to node X2:X10:NC_03.  This node is used by M:X2:X10:4.
WARNING: Less than two connections to node X2:X10:NC_04.  This node is used by M:X2:X10:5.
WARNING: Less than two connections to node X2:X11:NC_01.  This node is used by M:X2:X11:2.
WARNING: Less than two connections to node X2:X11:NC_02.  This node is used by M:X2:X11:3.
WARNING: Less than two connections to node X2:X11:NC_03.  This node is used by M:X2:X11:4.
WARNING: Less than two connections to node X2:X11:NC_04.  This node is used by M:X2:X11:5.
WARNING: Less than two connections to node X2:X12:NC_01.  This node is used by M:X2:X12:2.
WARNING: Less than two connections to node X2:X12:NC_02.  This node is used by M:X2:X12:3.
WARNING: Less than two connections to node X2:X12:NC_03.  This node is used by M:X2:X12:4.
WARNING: Less than two connections to node X2:X12:NC_04.  This node is used by M:X2:X12:5.
Warning: Pd = 9e-013 is less than W.
Warning: Ps = 1.08e-012 is less than W.
Warning: Pd = 9e-013 is less than W.
Warning: Ps = 1.08e-012 is less than W.
Warning: Pd = 9e-013 is less than W.
Warning: Ps = 1.08e-012 is less than W.
Warning: Pd = 9e-013 is less than W.
Warning: Ps = 1.08e-012 is less than W.
Warning: Pd = 9e-013 is less than W.
Warning: Ps = 1.08e-012 is less than W.
Warning: Pd = 9e-013 is less than W.
Warning: Ps = 1.08e-012 is less than W.
Warning: Pd = 9e-013 is less than W.
Warning: Ps = 1.08e-012 is less than W.
Warning: Pd = 9e-013 is less than W.
Warning: Ps = 1.08e-012 is less than W.
Warning: Pd = 9e-013 is less than W.
Warning: Ps = 1.08e-012 is less than W.
Warning: Pd = 9e-013 is less than W.
Warning: Ps = 1.08e-012 is less than W.
Warning: Pd = 9e-013 is less than W.
Warning: Ps = 1.08e-012 is less than W.
Warning: Pd = 9e-013 is less than W.
Warning: Ps = 1.08e-012 is less than W.
Early termination of direct N-R iteration.
Direct Newton iteration failed to find .op point.  (Use ".option noopiter" to skip.)
Starting Gmin stepping
Gmin = 10
Gmin = 1.07374
Gmin = 0.115292
Gmin = 0.0123794
Gmin = 0.00132923
Gmin = 0.000142725
Gmin = 1.5325e-005
Gmin = 1.6455e-006
Gmin = 1.76685e-007
Gmin = 1.89714e-008
Gmin = 2.03704e-009
Gmin = 2.18725e-010
Gmin = 2.34854e-011
Gmin = 2.52173e-012
Gmin = 2.70769e-013
Gmin = 0
Gmin stepping succeeded in finding the operating point.


Date: Mon Jun 06 17:20:31 2022
Total elapsed time: 0.343 seconds.

tnom = 27
temp = 27
method = modified trap
totiter = 3039
traniter = 2619
tranpoints = 1160
accept = 1133
rejected = 27
matrix size = 94
fillins = 62
solver = Normal
Thread vector: 23.4/13.9[4] 3.8/6.2[1] 3.1/3.8[1] 0.4/1.7[1]  2592/500
Matrix Compiler1: 12.99 KB object code size  2.0/1.0/[0.5]
Matrix Compiler2: 11.73 KB object code size  1.1/1.3/[0.5]

