Circuit: * C:\Users\frede\OneDrive\Bureau\UdeS_S4_APP3\nand_test.asc

WARNING: Node X9:N005 is floating.
WARNING: Node X9:N003 is floating.
WARNING: Node X9:N002 is floating.
WARNING: Node X9:N001 is floating.

WARNING: Less than two connections to node X9:N005.  This node is used by M:X9:2.
WARNING: Less than two connections to node X9:N003.  This node is used by M:X9:3.
WARNING: Less than two connections to node X9:N002.  This node is used by M:X9:4.
WARNING: Less than two connections to node X9:N001.  This node is used by M:X9:5.
Warning: Pd = 1.62e-013 is less than W.
Warning: Ps = 1.944e-013 is less than W.
Direct Newton iteration for .op point succeeded.

t1: time=3.01336e-009 at 3.01336e-009
t2: time=3.08073e-009 at 3.08073e-009
t3: time=2.07813e-009 at 2.07813e-009
t4: time=2.01264e-009 at 2.01264e-009
transition_up: abs(t2-t1)=6.73634e-011
transition_down: abs(t4-t3)=6.54921e-011

Measurement "ratio" FAIL'ed


Date: Wed Jun 08 10:33:35 2022
Total elapsed time: 0.459 seconds.

tnom = 27
temp = 27
method = modified trap
totiter = 2684
traniter = 2668
tranpoints = 1256
accept = 1189
rejected = 67
matrix size = 12
fillins = 14
solver = Normal
Matrix Compiler1: 1.42 KB object code size  0.9/0.5/[0.5]
Matrix Compiler2: off  [0.5]/0.6/0.6

