Circuit: * C:\Users\frede\OneDrive\Bureau\UdeS_S4_APP3\nor_test.asc

WARNING: Node X1:N004 is floating.
WARNING: Node X1:N005 is floating.
WARNING: Node X1:N001 is floating.
WARNING: Node X1:N003 is floating.

WARNING: Less than two connections to node X1:N004.  This node is used by M:X1:2.
WARNING: Less than two connections to node X1:N005.  This node is used by M:X1:3.
WARNING: Less than two connections to node X1:N001.  This node is used by M:X1:5.
WARNING: Less than two connections to node X1:N003.  This node is used by M:X1:6.
Warning: Pd = 1.62e-013 is less than W.
Warning: Ps = 1.944e-013 is less than W.
Direct Newton iteration for .op point succeeded.

t1: time=2.00099e-009 at 2.00099e-009
t2: time=4.08754e-009 at 4.08754e-009
t3: time=1.06039e-009 at 1.06039e-009
t4: time=1.0122e-009 at 1.0122e-009
transition_up: abs(t2-t1)=2.08655e-009
transition_down: abs(t4-t3)=4.8193e-011

Measurement "ratio" FAIL'ed


Date: Wed Jun 08 14:49:41 2022
Total elapsed time: 0.383 seconds.

tnom = 27
temp = 27
method = modified trap
totiter = 2615
traniter = 2599
tranpoints = 1242
accept = 1177
rejected = 65
matrix size = 12
fillins = 14
solver = Normal
Matrix Compiler1: 1.34 KB object code size  0.9/0.5/[0.4]
Matrix Compiler2: off  [0.5]/0.6/0.5

