Circuit: * C:\Users\frede\OneDrive\Bureau\UdeS_S4_APP3\pad_buffer_test.asc

Direct Newton iteration for .op point succeeded.

Date: Wed Jun 08 11:37:27 2022
Total elapsed time: 0.339 seconds.

tnom = 27
temp = 27
method = modified trap
totiter = 3030
traniter = 3021
tranpoints = 1359
accept = 1214
rejected = 145
matrix size = 12
fillins = 0
solver = Normal
Matrix Compiler1: 824 bytes object code size  0.4/0.3/[0.2]
Matrix Compiler2: off  [0.3]/0.3/0.3

