Circuit: * C:\Users\frede\OneDrive\Bureau\UdeS_S4_APP3\xor_test.asc

WARNING: Node X2:N002 is floating.
WARNING: Node X2:N008 is floating.
WARNING: Node X2:N001 is floating.
WARNING: Node X2:N005 is floating.
WARNING: Node X2:N006 is floating.
WARNING: Node X2:N009 is floating.

WARNING: Less than two connections to node X2:N002.  This node is used by M:X2:1.
WARNING: Less than two connections to node X2:N008.  This node is used by M:X2:2.
WARNING: Less than two connections to node X2:N001.  This node is used by M:X2:4.
WARNING: Less than two connections to node X2:N005.  This node is used by M:X2:5.
WARNING: Less than two connections to node X2:N006.  This node is used by M:X2:6.
WARNING: Less than two connections to node X2:N009.  This node is used by M:X2:11.
Warning: Pd = 1.62e-013 is less than W.
Warning: Ps = 1.944e-013 is less than W.
Early termination of direct N-R iteration.
Direct Newton iteration failed to find .op point.  (Use ".option noopiter" to skip.)
Starting Gmin stepping
Gmin = 10
Gmin = 1.07374
Gmin = 0.115292
Gmin = 0.0123794
Gmin = 0.00132923
Gmin = 0.000142725
Gmin = 1.5325e-005
Gmin = 1.6455e-006
Gmin = 1.76685e-007
Gmin = 1.89714e-008
Gmin = 2.03704e-009
Gmin = 2.18725e-010
Gmin = 2.34854e-011
Gmin = 2.52173e-012
Gmin = 2.70769e-013
Gmin = 0
Gmin stepping succeeded in finding the operating point.


t1: time=1.05982e-009 at 1.05982e-009
t2: time=1.18511e-009 at 1.18511e-009
t3: time=2.13551e-009 at 2.13551e-009
t4: time=2.01309e-009 at 2.01309e-009
transition_up: abs(t2-t1)=1.25291e-010
transition_down: abs(t4-t3)=1.2242e-010

Measurement "ratio" FAIL'ed


Date: Wed Jun 08 15:03:54 2022
Total elapsed time: 0.556 seconds.

tnom = 27
temp = 27
method = modified trap
totiter = 2977
traniter = 2651
tranpoints = 1244
accept = 1177
rejected = 67
matrix size = 18
fillins = 0
solver = Normal
Matrix Compiler1: 1.69 KB object code size  1.1/0.7/[0.4]
Matrix Compiler2:     151 opcodes  1.6/[0.9]/1.0

